
---------- Begin Simulation Statistics ----------
simSeconds                                   0.058231                       # Number of seconds simulated (Second)
simTicks                                  58231122000                       # Number of ticks simulated (Tick)
finalTick                                 58231122000                       # Number of ticks from beginning of simulation (restored from checkpoints and never reset) (Tick)
simFreq                                  1000000000000                       # The number of ticks per simulated second ((Tick/Second))
hostSeconds                                    180.88                       # Real time elapsed on the host (Second)
hostTickRate                                321940949                       # The number of ticks simulated per host second (ticks/s) ((Tick/Second))
hostMemory                                  405525008                       # Number of bytes of host memory used (Byte)
simInsts                                     72715688                       # Number of instructions simulated (Count)
simOps                                      125308788                       # Number of ops (including micro ops) simulated (Count)
hostInstRate                                   402021                       # Simulator instruction rate (inst/s) ((Count/Second))
hostOpRate                                     692791                       # Simulator op (including micro ops) rate (op/s) ((Count/Second))
system.clk_domain.clock                          1000                       # Clock period in ticks (Tick)
system.clk_domain.voltage_domain.voltage            1                       # Voltage in Volts (Volt)
system.cpu0.numCycles                        58209095                       # Number of cpu cycles simulated (Cycle)
system.cpu0.cpi                              3.202010                       # CPI: cycles per instruction (core level) ((Cycle/Count))
system.cpu0.ipc                              0.312304                       # IPC: instructions per cycle (core level) ((Count/Cycle))
system.cpu0.numWorkItemsStarted                     0                       # Number of work items this cpu started (Count)
system.cpu0.numWorkItemsCompleted                   0                       # Number of work items this cpu completed (Count)
system.cpu0.branchPred.lookups_0::NoBranch            0                       # Number of BP lookups (Count)
system.cpu0.branchPred.lookups_0::Return            0                       # Number of BP lookups (Count)
system.cpu0.branchPred.lookups_0::CallDirect            0                       # Number of BP lookups (Count)
system.cpu0.branchPred.lookups_0::CallIndirect            0                       # Number of BP lookups (Count)
system.cpu0.branchPred.lookups_0::DirectCond            0                       # Number of BP lookups (Count)
system.cpu0.branchPred.lookups_0::DirectUncond            0                       # Number of BP lookups (Count)
system.cpu0.branchPred.lookups_0::IndirectCond            0                       # Number of BP lookups (Count)
system.cpu0.branchPred.lookups_0::IndirectUncond            0                       # Number of BP lookups (Count)
system.cpu0.branchPred.lookups_0::total             0                       # Number of BP lookups (Count)
system.cpu0.branchPred.squashes_0::NoBranch            0                       # Number of branches that got squashed (completely removed) as an earlier branch was mispredicted. (Count)
system.cpu0.branchPred.squashes_0::Return            0                       # Number of branches that got squashed (completely removed) as an earlier branch was mispredicted. (Count)
system.cpu0.branchPred.squashes_0::CallDirect            0                       # Number of branches that got squashed (completely removed) as an earlier branch was mispredicted. (Count)
system.cpu0.branchPred.squashes_0::CallIndirect            0                       # Number of branches that got squashed (completely removed) as an earlier branch was mispredicted. (Count)
system.cpu0.branchPred.squashes_0::DirectCond            0                       # Number of branches that got squashed (completely removed) as an earlier branch was mispredicted. (Count)
system.cpu0.branchPred.squashes_0::DirectUncond            0                       # Number of branches that got squashed (completely removed) as an earlier branch was mispredicted. (Count)
system.cpu0.branchPred.squashes_0::IndirectCond            0                       # Number of branches that got squashed (completely removed) as an earlier branch was mispredicted. (Count)
system.cpu0.branchPred.squashes_0::IndirectUncond            0                       # Number of branches that got squashed (completely removed) as an earlier branch was mispredicted. (Count)
system.cpu0.branchPred.squashes_0::total            0                       # Number of branches that got squashed (completely removed) as an earlier branch was mispredicted. (Count)
system.cpu0.branchPred.corrected_0::NoBranch            0                       # Number of branches that got corrected but not yet commited. Branches get corrected by decode or after execute. Also a branch misprediction can be detected out-of-order. Therefore, a corrected branch might not end up beeing committed in case an even earlier branch was mispredicted (Count)
system.cpu0.branchPred.corrected_0::Return            0                       # Number of branches that got corrected but not yet commited. Branches get corrected by decode or after execute. Also a branch misprediction can be detected out-of-order. Therefore, a corrected branch might not end up beeing committed in case an even earlier branch was mispredicted (Count)
system.cpu0.branchPred.corrected_0::CallDirect            0                       # Number of branches that got corrected but not yet commited. Branches get corrected by decode or after execute. Also a branch misprediction can be detected out-of-order. Therefore, a corrected branch might not end up beeing committed in case an even earlier branch was mispredicted (Count)
system.cpu0.branchPred.corrected_0::CallIndirect            0                       # Number of branches that got corrected but not yet commited. Branches get corrected by decode or after execute. Also a branch misprediction can be detected out-of-order. Therefore, a corrected branch might not end up beeing committed in case an even earlier branch was mispredicted (Count)
system.cpu0.branchPred.corrected_0::DirectCond            0                       # Number of branches that got corrected but not yet commited. Branches get corrected by decode or after execute. Also a branch misprediction can be detected out-of-order. Therefore, a corrected branch might not end up beeing committed in case an even earlier branch was mispredicted (Count)
system.cpu0.branchPred.corrected_0::DirectUncond            0                       # Number of branches that got corrected but not yet commited. Branches get corrected by decode or after execute. Also a branch misprediction can be detected out-of-order. Therefore, a corrected branch might not end up beeing committed in case an even earlier branch was mispredicted (Count)
system.cpu0.branchPred.corrected_0::IndirectCond            0                       # Number of branches that got corrected but not yet commited. Branches get corrected by decode or after execute. Also a branch misprediction can be detected out-of-order. Therefore, a corrected branch might not end up beeing committed in case an even earlier branch was mispredicted (Count)
system.cpu0.branchPred.corrected_0::IndirectUncond            0                       # Number of branches that got corrected but not yet commited. Branches get corrected by decode or after execute. Also a branch misprediction can be detected out-of-order. Therefore, a corrected branch might not end up beeing committed in case an even earlier branch was mispredicted (Count)
system.cpu0.branchPred.corrected_0::total            0                       # Number of branches that got corrected but not yet commited. Branches get corrected by decode or after execute. Also a branch misprediction can be detected out-of-order. Therefore, a corrected branch might not end up beeing committed in case an even earlier branch was mispredicted (Count)
system.cpu0.branchPred.earlyResteers_0::NoBranch            0                       # Number of branches that got redirected after decode. (Count)
system.cpu0.branchPred.earlyResteers_0::Return            0                       # Number of branches that got redirected after decode. (Count)
system.cpu0.branchPred.earlyResteers_0::CallDirect            0                       # Number of branches that got redirected after decode. (Count)
system.cpu0.branchPred.earlyResteers_0::CallIndirect            0                       # Number of branches that got redirected after decode. (Count)
system.cpu0.branchPred.earlyResteers_0::DirectCond            0                       # Number of branches that got redirected after decode. (Count)
system.cpu0.branchPred.earlyResteers_0::DirectUncond            0                       # Number of branches that got redirected after decode. (Count)
system.cpu0.branchPred.earlyResteers_0::IndirectCond            0                       # Number of branches that got redirected after decode. (Count)
system.cpu0.branchPred.earlyResteers_0::IndirectUncond            0                       # Number of branches that got redirected after decode. (Count)
system.cpu0.branchPred.earlyResteers_0::total            0                       # Number of branches that got redirected after decode. (Count)
system.cpu0.branchPred.committed_0::NoBranch            0                       # Number of branches finally committed  (Count)
system.cpu0.branchPred.committed_0::Return            0                       # Number of branches finally committed  (Count)
system.cpu0.branchPred.committed_0::CallDirect            0                       # Number of branches finally committed  (Count)
system.cpu0.branchPred.committed_0::CallIndirect            0                       # Number of branches finally committed  (Count)
system.cpu0.branchPred.committed_0::DirectCond            0                       # Number of branches finally committed  (Count)
system.cpu0.branchPred.committed_0::DirectUncond            0                       # Number of branches finally committed  (Count)
system.cpu0.branchPred.committed_0::IndirectCond            0                       # Number of branches finally committed  (Count)
system.cpu0.branchPred.committed_0::IndirectUncond            0                       # Number of branches finally committed  (Count)
system.cpu0.branchPred.committed_0::total            0                       # Number of branches finally committed  (Count)
system.cpu0.branchPred.mispredicted_0::NoBranch            0                       # Number of committed branches that were mispredicted. (Count)
system.cpu0.branchPred.mispredicted_0::Return            0                       # Number of committed branches that were mispredicted. (Count)
system.cpu0.branchPred.mispredicted_0::CallDirect            0                       # Number of committed branches that were mispredicted. (Count)
system.cpu0.branchPred.mispredicted_0::CallIndirect            0                       # Number of committed branches that were mispredicted. (Count)
system.cpu0.branchPred.mispredicted_0::DirectCond            0                       # Number of committed branches that were mispredicted. (Count)
system.cpu0.branchPred.mispredicted_0::DirectUncond            0                       # Number of committed branches that were mispredicted. (Count)
system.cpu0.branchPred.mispredicted_0::IndirectCond            0                       # Number of committed branches that were mispredicted. (Count)
system.cpu0.branchPred.mispredicted_0::IndirectUncond            0                       # Number of committed branches that were mispredicted. (Count)
system.cpu0.branchPred.mispredicted_0::total            0                       # Number of committed branches that were mispredicted. (Count)
system.cpu0.branchPred.targetProvider_0::NoTarget            0                       # The component providing the target for taken branches (Count)
system.cpu0.branchPred.targetProvider_0::BTB            0                       # The component providing the target for taken branches (Count)
system.cpu0.branchPred.targetProvider_0::RAS            0                       # The component providing the target for taken branches (Count)
system.cpu0.branchPred.targetProvider_0::Indirect            0                       # The component providing the target for taken branches (Count)
system.cpu0.branchPred.targetProvider_0::total            0                       # The component providing the target for taken branches (Count)
system.cpu0.branchPred.targetWrong_0::NoBranch            0                       # Number of branches where the target was incorrect or not available at prediction time. (Count)
system.cpu0.branchPred.targetWrong_0::Return            0                       # Number of branches where the target was incorrect or not available at prediction time. (Count)
system.cpu0.branchPred.targetWrong_0::CallDirect            0                       # Number of branches where the target was incorrect or not available at prediction time. (Count)
system.cpu0.branchPred.targetWrong_0::CallIndirect            0                       # Number of branches where the target was incorrect or not available at prediction time. (Count)
system.cpu0.branchPred.targetWrong_0::DirectCond            0                       # Number of branches where the target was incorrect or not available at prediction time. (Count)
system.cpu0.branchPred.targetWrong_0::DirectUncond            0                       # Number of branches where the target was incorrect or not available at prediction time. (Count)
system.cpu0.branchPred.targetWrong_0::IndirectCond            0                       # Number of branches where the target was incorrect or not available at prediction time. (Count)
system.cpu0.branchPred.targetWrong_0::IndirectUncond            0                       # Number of branches where the target was incorrect or not available at prediction time. (Count)
system.cpu0.branchPred.targetWrong_0::total            0                       # Number of branches where the target was incorrect or not available at prediction time. (Count)
system.cpu0.branchPred.condPredicted                0                       # Number of conditional branches predicted (Count)
system.cpu0.branchPred.condPredictedTaken            0                       # Number of conditional branches predicted as taken (Count)
system.cpu0.branchPred.condIncorrect                0                       # Number of conditional branches incorrect (Count)
system.cpu0.branchPred.predTakenBTBMiss             0                       # Number of branches predicted taken but missed in BTB (Count)
system.cpu0.branchPred.NotTakenMispredicted            0                       # Number branches predicted 'not taken' but turned out to be taken (Count)
system.cpu0.branchPred.TakenMispredicted            0                       # Number branches predicted taken but are actually not taken (Count)
system.cpu0.branchPred.BTBLookups                   0                       # Number of BTB lookups (Count)
system.cpu0.branchPred.BTBUpdates                   0                       # Number of BTB updates (Count)
system.cpu0.branchPred.BTBHits                      0                       # Number of BTB hits (Count)
system.cpu0.branchPred.BTBHitRatio                nan                       # BTB Hit Ratio (Ratio)
system.cpu0.branchPred.BTBMispredicted              0                       # Number BTB mispredictions. No target found or target wrong (Count)
system.cpu0.branchPred.indirectLookups              0                       # Number of indirect predictor lookups. (Count)
system.cpu0.branchPred.indirectHits                 0                       # Number of indirect target hits. (Count)
system.cpu0.branchPred.indirectMisses               0                       # Number of indirect misses. (Count)
system.cpu0.branchPred.indirectMispredicted            0                       # Number of mispredicted indirect branches. (Count)
system.cpu0.branchPred.btb.lookups::NoBranch            0                       # Number of BTB lookups (Count)
system.cpu0.branchPred.btb.lookups::Return            0                       # Number of BTB lookups (Count)
system.cpu0.branchPred.btb.lookups::CallDirect            0                       # Number of BTB lookups (Count)
system.cpu0.branchPred.btb.lookups::CallIndirect            0                       # Number of BTB lookups (Count)
system.cpu0.branchPred.btb.lookups::DirectCond            0                       # Number of BTB lookups (Count)
system.cpu0.branchPred.btb.lookups::DirectUncond            0                       # Number of BTB lookups (Count)
system.cpu0.branchPred.btb.lookups::IndirectCond            0                       # Number of BTB lookups (Count)
system.cpu0.branchPred.btb.lookups::IndirectUncond            0                       # Number of BTB lookups (Count)
system.cpu0.branchPred.btb.lookups::total            0                       # Number of BTB lookups (Count)
system.cpu0.branchPred.btb.misses::NoBranch            0                       # Number of BTB misses (Count)
system.cpu0.branchPred.btb.misses::Return            0                       # Number of BTB misses (Count)
system.cpu0.branchPred.btb.misses::CallDirect            0                       # Number of BTB misses (Count)
system.cpu0.branchPred.btb.misses::CallIndirect            0                       # Number of BTB misses (Count)
system.cpu0.branchPred.btb.misses::DirectCond            0                       # Number of BTB misses (Count)
system.cpu0.branchPred.btb.misses::DirectUncond            0                       # Number of BTB misses (Count)
system.cpu0.branchPred.btb.misses::IndirectCond            0                       # Number of BTB misses (Count)
system.cpu0.branchPred.btb.misses::IndirectUncond            0                       # Number of BTB misses (Count)
system.cpu0.branchPred.btb.misses::total            0                       # Number of BTB misses (Count)
system.cpu0.branchPred.btb.updates::NoBranch            0                       # Number of BTB updates (Count)
system.cpu0.branchPred.btb.updates::Return            0                       # Number of BTB updates (Count)
system.cpu0.branchPred.btb.updates::CallDirect            0                       # Number of BTB updates (Count)
system.cpu0.branchPred.btb.updates::CallIndirect            0                       # Number of BTB updates (Count)
system.cpu0.branchPred.btb.updates::DirectCond            0                       # Number of BTB updates (Count)
system.cpu0.branchPred.btb.updates::DirectUncond            0                       # Number of BTB updates (Count)
system.cpu0.branchPred.btb.updates::IndirectCond            0                       # Number of BTB updates (Count)
system.cpu0.branchPred.btb.updates::IndirectUncond            0                       # Number of BTB updates (Count)
system.cpu0.branchPred.btb.updates::total            0                       # Number of BTB updates (Count)
system.cpu0.branchPred.btb.mispredict::NoBranch            0                       # Number of BTB mispredictions. No target found or target wrong. (Count)
system.cpu0.branchPred.btb.mispredict::Return            0                       # Number of BTB mispredictions. No target found or target wrong. (Count)
system.cpu0.branchPred.btb.mispredict::CallDirect            0                       # Number of BTB mispredictions. No target found or target wrong. (Count)
system.cpu0.branchPred.btb.mispredict::CallIndirect            0                       # Number of BTB mispredictions. No target found or target wrong. (Count)
system.cpu0.branchPred.btb.mispredict::DirectCond            0                       # Number of BTB mispredictions. No target found or target wrong. (Count)
system.cpu0.branchPred.btb.mispredict::DirectUncond            0                       # Number of BTB mispredictions. No target found or target wrong. (Count)
system.cpu0.branchPred.btb.mispredict::IndirectCond            0                       # Number of BTB mispredictions. No target found or target wrong. (Count)
system.cpu0.branchPred.btb.mispredict::IndirectUncond            0                       # Number of BTB mispredictions. No target found or target wrong. (Count)
system.cpu0.branchPred.btb.mispredict::total            0                       # Number of BTB mispredictions. No target found or target wrong. (Count)
system.cpu0.branchPred.btb.power_state.pwrStateResidencyTicks::UNDEFINED  58231122000                       # Cumulative time (in ticks) in various power states (Tick)
system.cpu0.branchPred.indirectBranchPred.lookups            0                       # Number of lookups (Count)
system.cpu0.branchPred.indirectBranchPred.hits            0                       # Number of hits of a tag (Count)
system.cpu0.branchPred.indirectBranchPred.misses            0                       # Number of misses (Count)
system.cpu0.branchPred.indirectBranchPred.targetRecords            0                       # Number of targets that where recorded/installed in the cache (Count)
system.cpu0.branchPred.indirectBranchPred.indirectRecords            0                       # Number of indirect branches/calls recorded in the indirect hist (Count)
system.cpu0.branchPred.indirectBranchPred.speculativeOverflows            0                       # Number of times more than the allowed capacity for speculative branches/calls where in flight and destroy the path history (Count)
system.cpu0.branchPred.ras.pushes                   0                       # Number of times a PC was pushed onto the RAS (Count)
system.cpu0.branchPred.ras.pops                     0                       # Number of times a PC was poped from the RAS (Count)
system.cpu0.branchPred.ras.squashes                 0                       # Number of times the stack operation was squashed due to wrong speculation. (Count)
system.cpu0.branchPred.ras.used                     0                       # Number of times the RAS is the provider (Count)
system.cpu0.branchPred.ras.correct                  0                       # Number of times the RAS is the provider and the prediction is correct (Count)
system.cpu0.branchPred.ras.incorrect                0                       # Number of times the RAS is the provider and the prediction is wrong (Count)
system.cpu0.commitStats0.numInsts            18178922                       # Number of instructions committed (thread level) (Count)
system.cpu0.commitStats0.numOps              31327197                       # Number of ops (including micro ops) committed (thread level) (Count)
system.cpu0.commitStats0.numInstsNotNOP             0                       # Number of instructions committed excluding NOPs or prefetches (Count)
system.cpu0.commitStats0.numOpsNotNOP               0                       # Number of Ops (including micro ops) Simulated (Count)
system.cpu0.commitStats0.cpi                 3.202010                       # CPI: cycles per instruction (thread level) ((Cycle/Count))
system.cpu0.commitStats0.ipc                 0.312304                       # IPC: instructions per cycle (thread level) ((Count/Cycle))
system.cpu0.commitStats0.numMemRefs                 0                       # Number of memory references committed (Count)
system.cpu0.commitStats0.numFpInsts                 0                       # Number of float instructions (Count)
system.cpu0.commitStats0.numIntInsts                0                       # Number of integer instructions (Count)
system.cpu0.commitStats0.numLoadInsts               0                       # Number of load instructions (Count)
system.cpu0.commitStats0.numStoreInsts              0                       # Number of store instructions (Count)
system.cpu0.commitStats0.numVecInsts                0                       # Number of vector instructions (Count)
system.cpu0.commitStats0.committedInstType::No_OpClass         1116      0.00%      0.00% # Class of committed instruction. (Count)
system.cpu0.commitStats0.committedInstType::IntAlu     15277501     48.77%     48.77% # Class of committed instruction. (Count)
system.cpu0.commitStats0.committedInstType::IntMult           96      0.00%     48.77% # Class of committed instruction. (Count)
system.cpu0.commitStats0.committedInstType::IntDiv          161      0.00%     48.77% # Class of committed instruction. (Count)
system.cpu0.commitStats0.committedInstType::FloatAdd          269      0.00%     48.77% # Class of committed instruction. (Count)
system.cpu0.commitStats0.committedInstType::FloatCmp            0      0.00%     48.77% # Class of committed instruction. (Count)
system.cpu0.commitStats0.committedInstType::FloatCvt            0      0.00%     48.77% # Class of committed instruction. (Count)
system.cpu0.commitStats0.committedInstType::FloatMult            0      0.00%     48.77% # Class of committed instruction. (Count)
system.cpu0.commitStats0.committedInstType::FloatMultAcc            0      0.00%     48.77% # Class of committed instruction. (Count)
system.cpu0.commitStats0.committedInstType::FloatDiv            0      0.00%     48.77% # Class of committed instruction. (Count)
system.cpu0.commitStats0.committedInstType::FloatMisc            0      0.00%     48.77% # Class of committed instruction. (Count)
system.cpu0.commitStats0.committedInstType::FloatSqrt            0      0.00%     48.77% # Class of committed instruction. (Count)
system.cpu0.commitStats0.committedInstType::SimdAdd           10      0.00%     48.77% # Class of committed instruction. (Count)
system.cpu0.commitStats0.committedInstType::SimdAddAcc            0      0.00%     48.77% # Class of committed instruction. (Count)
system.cpu0.commitStats0.committedInstType::SimdAlu      4000455     12.77%     61.54% # Class of committed instruction. (Count)
system.cpu0.commitStats0.committedInstType::SimdCmp            0      0.00%     61.54% # Class of committed instruction. (Count)
system.cpu0.commitStats0.committedInstType::SimdCvt          202      0.00%     61.54% # Class of committed instruction. (Count)
system.cpu0.commitStats0.committedInstType::SimdMisc          626      0.00%     61.55% # Class of committed instruction. (Count)
system.cpu0.commitStats0.committedInstType::SimdMult            0      0.00%     61.55% # Class of committed instruction. (Count)
system.cpu0.commitStats0.committedInstType::SimdMultAcc            0      0.00%     61.55% # Class of committed instruction. (Count)
system.cpu0.commitStats0.committedInstType::SimdMatMultAcc            0      0.00%     61.55% # Class of committed instruction. (Count)
system.cpu0.commitStats0.committedInstType::SimdShift            3      0.00%     61.55% # Class of committed instruction. (Count)
system.cpu0.commitStats0.committedInstType::SimdShiftAcc            0      0.00%     61.55% # Class of committed instruction. (Count)
system.cpu0.commitStats0.committedInstType::SimdDiv            0      0.00%     61.55% # Class of committed instruction. (Count)
system.cpu0.commitStats0.committedInstType::SimdSqrt            0      0.00%     61.55% # Class of committed instruction. (Count)
system.cpu0.commitStats0.committedInstType::SimdFloatAdd      1000000      3.19%     64.74% # Class of committed instruction. (Count)
system.cpu0.commitStats0.committedInstType::SimdFloatAlu            0      0.00%     64.74% # Class of committed instruction. (Count)
system.cpu0.commitStats0.committedInstType::SimdFloatCmp            0      0.00%     64.74% # Class of committed instruction. (Count)
system.cpu0.commitStats0.committedInstType::SimdFloatCvt      2000020      6.38%     71.12% # Class of committed instruction. (Count)
system.cpu0.commitStats0.committedInstType::SimdFloatDiv            0      0.00%     71.12% # Class of committed instruction. (Count)
system.cpu0.commitStats0.committedInstType::SimdFloatMisc            0      0.00%     71.12% # Class of committed instruction. (Count)
system.cpu0.commitStats0.committedInstType::SimdFloatMult            0      0.00%     71.12% # Class of committed instruction. (Count)
system.cpu0.commitStats0.committedInstType::SimdFloatMultAcc            0      0.00%     71.12% # Class of committed instruction. (Count)
system.cpu0.commitStats0.committedInstType::SimdFloatMatMultAcc            0      0.00%     71.12% # Class of committed instruction. (Count)
system.cpu0.commitStats0.committedInstType::SimdFloatSqrt            0      0.00%     71.12% # Class of committed instruction. (Count)
system.cpu0.commitStats0.committedInstType::SimdReduceAdd            0      0.00%     71.12% # Class of committed instruction. (Count)
system.cpu0.commitStats0.committedInstType::SimdReduceAlu            0      0.00%     71.12% # Class of committed instruction. (Count)
system.cpu0.commitStats0.committedInstType::SimdReduceCmp            0      0.00%     71.12% # Class of committed instruction. (Count)
system.cpu0.commitStats0.committedInstType::SimdFloatReduceAdd            0      0.00%     71.12% # Class of committed instruction. (Count)
system.cpu0.commitStats0.committedInstType::SimdFloatReduceCmp            0      0.00%     71.12% # Class of committed instruction. (Count)
system.cpu0.commitStats0.committedInstType::SimdAes            0      0.00%     71.12% # Class of committed instruction. (Count)
system.cpu0.commitStats0.committedInstType::SimdAesMix            0      0.00%     71.12% # Class of committed instruction. (Count)
system.cpu0.commitStats0.committedInstType::SimdSha1Hash            0      0.00%     71.12% # Class of committed instruction. (Count)
system.cpu0.commitStats0.committedInstType::SimdSha1Hash2            0      0.00%     71.12% # Class of committed instruction. (Count)
system.cpu0.commitStats0.committedInstType::SimdSha256Hash            0      0.00%     71.12% # Class of committed instruction. (Count)
system.cpu0.commitStats0.committedInstType::SimdSha256Hash2            0      0.00%     71.12% # Class of committed instruction. (Count)
system.cpu0.commitStats0.committedInstType::SimdShaSigma2            0      0.00%     71.12% # Class of committed instruction. (Count)
system.cpu0.commitStats0.committedInstType::SimdShaSigma3            0      0.00%     71.12% # Class of committed instruction. (Count)
system.cpu0.commitStats0.committedInstType::SimdPredAlu            0      0.00%     71.12% # Class of committed instruction. (Count)
system.cpu0.commitStats0.committedInstType::Matrix            0      0.00%     71.12% # Class of committed instruction. (Count)
system.cpu0.commitStats0.committedInstType::MatrixMov            0      0.00%     71.12% # Class of committed instruction. (Count)
system.cpu0.commitStats0.committedInstType::MatrixOP            0      0.00%     71.12% # Class of committed instruction. (Count)
system.cpu0.commitStats0.committedInstType::MemRead      4028820     12.86%     83.98% # Class of committed instruction. (Count)
system.cpu0.commitStats0.committedInstType::MemWrite      1016209      3.24%     87.23% # Class of committed instruction. (Count)
system.cpu0.commitStats0.committedInstType::FloatMemRead      2000454      6.39%     93.61% # Class of committed instruction. (Count)
system.cpu0.commitStats0.committedInstType::FloatMemWrite      2001255      6.39%    100.00% # Class of committed instruction. (Count)
system.cpu0.commitStats0.committedInstType::IprAccess            0      0.00%    100.00% # Class of committed instruction. (Count)
system.cpu0.commitStats0.committedInstType::InstPrefetch            0      0.00%    100.00% # Class of committed instruction. (Count)
system.cpu0.commitStats0.committedInstType::SimdUnitStrideLoad            0      0.00%    100.00% # Class of committed instruction. (Count)
system.cpu0.commitStats0.committedInstType::SimdUnitStrideStore            0      0.00%    100.00% # Class of committed instruction. (Count)
system.cpu0.commitStats0.committedInstType::SimdUnitStrideMaskLoad            0      0.00%    100.00% # Class of committed instruction. (Count)
system.cpu0.commitStats0.committedInstType::SimdUnitStrideMaskStore            0      0.00%    100.00% # Class of committed instruction. (Count)
system.cpu0.commitStats0.committedInstType::SimdStridedLoad            0      0.00%    100.00% # Class of committed instruction. (Count)
system.cpu0.commitStats0.committedInstType::SimdStridedStore            0      0.00%    100.00% # Class of committed instruction. (Count)
system.cpu0.commitStats0.committedInstType::SimdIndexedLoad            0      0.00%    100.00% # Class of committed instruction. (Count)
system.cpu0.commitStats0.committedInstType::SimdIndexedStore            0      0.00%    100.00% # Class of committed instruction. (Count)
system.cpu0.commitStats0.committedInstType::SimdWholeRegisterLoad            0      0.00%    100.00% # Class of committed instruction. (Count)
system.cpu0.commitStats0.committedInstType::SimdWholeRegisterStore            0      0.00%    100.00% # Class of committed instruction. (Count)
system.cpu0.commitStats0.committedInstType::SimdUnitStrideFaultOnlyFirstLoad            0      0.00%    100.00% # Class of committed instruction. (Count)
system.cpu0.commitStats0.committedInstType::SimdUnitStrideSegmentedLoad            0      0.00%    100.00% # Class of committed instruction. (Count)
system.cpu0.commitStats0.committedInstType::SimdUnitStrideSegmentedStore            0      0.00%    100.00% # Class of committed instruction. (Count)
system.cpu0.commitStats0.committedInstType::SimdExt            0      0.00%    100.00% # Class of committed instruction. (Count)
system.cpu0.commitStats0.committedInstType::SimdFloatExt            0      0.00%    100.00% # Class of committed instruction. (Count)
system.cpu0.commitStats0.committedInstType::SimdConfig            0      0.00%    100.00% # Class of committed instruction. (Count)
system.cpu0.commitStats0.committedInstType::total     31327197                       # Class of committed instruction. (Count)
system.cpu0.dcache.demandHits::cpu0.data      7760254                       # number of demand (read+write) hits (Count)
system.cpu0.dcache.demandHits::total          7760254                       # number of demand (read+write) hits (Count)
system.cpu0.dcache.overallHits::cpu0.data      7760254                       # number of overall hits (Count)
system.cpu0.dcache.overallHits::total         7760254                       # number of overall hits (Count)
system.cpu0.dcache.demandMisses::cpu0.data       297462                       # number of demand (read+write) misses (Count)
system.cpu0.dcache.demandMisses::total         297462                       # number of demand (read+write) misses (Count)
system.cpu0.dcache.overallMisses::cpu0.data       297462                       # number of overall misses (Count)
system.cpu0.dcache.overallMisses::total        297462                       # number of overall misses (Count)
system.cpu0.dcache.demandMissLatency::cpu0.data  32345526000                       # number of demand (read+write) miss ticks (Tick)
system.cpu0.dcache.demandMissLatency::total  32345526000                       # number of demand (read+write) miss ticks (Tick)
system.cpu0.dcache.overallMissLatency::cpu0.data  32345526000                       # number of overall miss ticks (Tick)
system.cpu0.dcache.overallMissLatency::total  32345526000                       # number of overall miss ticks (Tick)
system.cpu0.dcache.demandAccesses::cpu0.data      8057716                       # number of demand (read+write) accesses (Count)
system.cpu0.dcache.demandAccesses::total      8057716                       # number of demand (read+write) accesses (Count)
system.cpu0.dcache.overallAccesses::cpu0.data      8057716                       # number of overall (read+write) accesses (Count)
system.cpu0.dcache.overallAccesses::total      8057716                       # number of overall (read+write) accesses (Count)
system.cpu0.dcache.demandMissRate::cpu0.data     0.036916                       # miss rate for demand accesses (Ratio)
system.cpu0.dcache.demandMissRate::total     0.036916                       # miss rate for demand accesses (Ratio)
system.cpu0.dcache.overallMissRate::cpu0.data     0.036916                       # miss rate for overall accesses (Ratio)
system.cpu0.dcache.overallMissRate::total     0.036916                       # miss rate for overall accesses (Ratio)
system.cpu0.dcache.demandAvgMissLatency::cpu0.data 108738.346411                       # average overall miss latency in ticks ((Tick/Count))
system.cpu0.dcache.demandAvgMissLatency::total 108738.346411                       # average overall miss latency in ticks ((Tick/Count))
system.cpu0.dcache.overallAvgMissLatency::cpu0.data 108738.346411                       # average overall miss latency ((Tick/Count))
system.cpu0.dcache.overallAvgMissLatency::total 108738.346411                       # average overall miss latency ((Tick/Count))
system.cpu0.dcache.blockedCycles::no_mshrs            0                       # number of cycles access was blocked (Cycle)
system.cpu0.dcache.blockedCycles::no_targets            0                       # number of cycles access was blocked (Cycle)
system.cpu0.dcache.blockedCauses::no_mshrs            0                       # number of times access was blocked (Count)
system.cpu0.dcache.blockedCauses::no_targets            0                       # number of times access was blocked (Count)
system.cpu0.dcache.avgBlocked::no_mshrs           nan                       # average number of cycles each access was blocked ((Cycle/Count))
system.cpu0.dcache.avgBlocked::no_targets          nan                       # average number of cycles each access was blocked ((Cycle/Count))
system.cpu0.dcache.writebacks::writebacks       249815                       # number of writebacks (Count)
system.cpu0.dcache.writebacks::total           249815                       # number of writebacks (Count)
system.cpu0.dcache.demandMshrHits::cpu0.data        46342                       # number of demand (read+write) MSHR hits (Count)
system.cpu0.dcache.demandMshrHits::total        46342                       # number of demand (read+write) MSHR hits (Count)
system.cpu0.dcache.overallMshrHits::cpu0.data        46342                       # number of overall MSHR hits (Count)
system.cpu0.dcache.overallMshrHits::total        46342                       # number of overall MSHR hits (Count)
system.cpu0.dcache.demandMshrMisses::cpu0.data       251120                       # number of demand (read+write) MSHR misses (Count)
system.cpu0.dcache.demandMshrMisses::total       251120                       # number of demand (read+write) MSHR misses (Count)
system.cpu0.dcache.overallMshrMisses::cpu0.data       251120                       # number of overall MSHR misses (Count)
system.cpu0.dcache.overallMshrMisses::total       251120                       # number of overall MSHR misses (Count)
system.cpu0.dcache.demandMshrMissLatency::cpu0.data  31425044000                       # number of demand (read+write) MSHR miss ticks (Tick)
system.cpu0.dcache.demandMshrMissLatency::total  31425044000                       # number of demand (read+write) MSHR miss ticks (Tick)
system.cpu0.dcache.overallMshrMissLatency::cpu0.data  31425044000                       # number of overall MSHR miss ticks (Tick)
system.cpu0.dcache.overallMshrMissLatency::total  31425044000                       # number of overall MSHR miss ticks (Tick)
system.cpu0.dcache.demandMshrMissRate::cpu0.data     0.031165                       # mshr miss ratio for demand accesses (Ratio)
system.cpu0.dcache.demandMshrMissRate::total     0.031165                       # mshr miss ratio for demand accesses (Ratio)
system.cpu0.dcache.overallMshrMissRate::cpu0.data     0.031165                       # mshr miss ratio for overall accesses (Ratio)
system.cpu0.dcache.overallMshrMissRate::total     0.031165                       # mshr miss ratio for overall accesses (Ratio)
system.cpu0.dcache.demandAvgMshrMissLatency::cpu0.data 125139.550812                       # average overall mshr miss latency ((Tick/Count))
system.cpu0.dcache.demandAvgMshrMissLatency::total 125139.550812                       # average overall mshr miss latency ((Tick/Count))
system.cpu0.dcache.overallAvgMshrMissLatency::cpu0.data 125139.550812                       # average overall mshr miss latency ((Tick/Count))
system.cpu0.dcache.overallAvgMshrMissLatency::total 125139.550812                       # average overall mshr miss latency ((Tick/Count))
system.cpu0.dcache.replacements                250614                       # number of replacements (Count)
system.cpu0.dcache.LockedRMWReadReq.hits::cpu0.data          124                       # number of LockedRMWReadReq hits (Count)
system.cpu0.dcache.LockedRMWReadReq.hits::total          124                       # number of LockedRMWReadReq hits (Count)
system.cpu0.dcache.LockedRMWReadReq.misses::cpu0.data            6                       # number of LockedRMWReadReq misses (Count)
system.cpu0.dcache.LockedRMWReadReq.misses::total            6                       # number of LockedRMWReadReq misses (Count)
system.cpu0.dcache.LockedRMWReadReq.missLatency::cpu0.data       698000                       # number of LockedRMWReadReq miss ticks (Tick)
system.cpu0.dcache.LockedRMWReadReq.missLatency::total       698000                       # number of LockedRMWReadReq miss ticks (Tick)
system.cpu0.dcache.LockedRMWReadReq.accesses::cpu0.data          130                       # number of LockedRMWReadReq accesses(hits+misses) (Count)
system.cpu0.dcache.LockedRMWReadReq.accesses::total          130                       # number of LockedRMWReadReq accesses(hits+misses) (Count)
system.cpu0.dcache.LockedRMWReadReq.missRate::cpu0.data     0.046154                       # miss rate for LockedRMWReadReq accesses (Ratio)
system.cpu0.dcache.LockedRMWReadReq.missRate::total     0.046154                       # miss rate for LockedRMWReadReq accesses (Ratio)
system.cpu0.dcache.LockedRMWReadReq.avgMissLatency::cpu0.data 116333.333333                       # average LockedRMWReadReq miss latency ((Tick/Count))
system.cpu0.dcache.LockedRMWReadReq.avgMissLatency::total 116333.333333                       # average LockedRMWReadReq miss latency ((Tick/Count))
system.cpu0.dcache.LockedRMWReadReq.mshrMisses::cpu0.data            6                       # number of LockedRMWReadReq MSHR misses (Count)
system.cpu0.dcache.LockedRMWReadReq.mshrMisses::total            6                       # number of LockedRMWReadReq MSHR misses (Count)
system.cpu0.dcache.LockedRMWReadReq.mshrMissLatency::cpu0.data      1898000                       # number of LockedRMWReadReq MSHR miss ticks (Tick)
system.cpu0.dcache.LockedRMWReadReq.mshrMissLatency::total      1898000                       # number of LockedRMWReadReq MSHR miss ticks (Tick)
system.cpu0.dcache.LockedRMWReadReq.mshrMissRate::cpu0.data     0.046154                       # mshr miss rate for LockedRMWReadReq accesses (Ratio)
system.cpu0.dcache.LockedRMWReadReq.mshrMissRate::total     0.046154                       # mshr miss rate for LockedRMWReadReq accesses (Ratio)
system.cpu0.dcache.LockedRMWReadReq.avgMshrMissLatency::cpu0.data 316333.333333                       # average LockedRMWReadReq mshr miss latency ((Tick/Count))
system.cpu0.dcache.LockedRMWReadReq.avgMshrMissLatency::total 316333.333333                       # average LockedRMWReadReq mshr miss latency ((Tick/Count))
system.cpu0.dcache.LockedRMWWriteReq.hits::cpu0.data          130                       # number of LockedRMWWriteReq hits (Count)
system.cpu0.dcache.LockedRMWWriteReq.hits::total          130                       # number of LockedRMWWriteReq hits (Count)
system.cpu0.dcache.LockedRMWWriteReq.accesses::cpu0.data          130                       # number of LockedRMWWriteReq accesses(hits+misses) (Count)
system.cpu0.dcache.LockedRMWWriteReq.accesses::total          130                       # number of LockedRMWWriteReq accesses(hits+misses) (Count)
system.cpu0.dcache.ReadReq.hits::cpu0.data      5039439                       # number of ReadReq hits (Count)
system.cpu0.dcache.ReadReq.hits::total        5039439                       # number of ReadReq hits (Count)
system.cpu0.dcache.ReadReq.misses::cpu0.data          947                       # number of ReadReq misses (Count)
system.cpu0.dcache.ReadReq.misses::total          947                       # number of ReadReq misses (Count)
system.cpu0.dcache.ReadReq.missLatency::cpu0.data     98908000                       # number of ReadReq miss ticks (Tick)
system.cpu0.dcache.ReadReq.missLatency::total     98908000                       # number of ReadReq miss ticks (Tick)
system.cpu0.dcache.ReadReq.accesses::cpu0.data      5040386                       # number of ReadReq accesses(hits+misses) (Count)
system.cpu0.dcache.ReadReq.accesses::total      5040386                       # number of ReadReq accesses(hits+misses) (Count)
system.cpu0.dcache.ReadReq.missRate::cpu0.data     0.000188                       # miss rate for ReadReq accesses (Ratio)
system.cpu0.dcache.ReadReq.missRate::total     0.000188                       # miss rate for ReadReq accesses (Ratio)
system.cpu0.dcache.ReadReq.avgMissLatency::cpu0.data 104443.505808                       # average ReadReq miss latency ((Tick/Count))
system.cpu0.dcache.ReadReq.avgMissLatency::total 104443.505808                       # average ReadReq miss latency ((Tick/Count))
system.cpu0.dcache.ReadReq.mshrHits::cpu0.data           22                       # number of ReadReq MSHR hits (Count)
system.cpu0.dcache.ReadReq.mshrHits::total           22                       # number of ReadReq MSHR hits (Count)
system.cpu0.dcache.ReadReq.mshrMisses::cpu0.data          925                       # number of ReadReq MSHR misses (Count)
system.cpu0.dcache.ReadReq.mshrMisses::total          925                       # number of ReadReq MSHR misses (Count)
system.cpu0.dcache.ReadReq.mshrMissLatency::cpu0.data     94692000                       # number of ReadReq MSHR miss ticks (Tick)
system.cpu0.dcache.ReadReq.mshrMissLatency::total     94692000                       # number of ReadReq MSHR miss ticks (Tick)
system.cpu0.dcache.ReadReq.mshrMissRate::cpu0.data     0.000184                       # mshr miss rate for ReadReq accesses (Ratio)
system.cpu0.dcache.ReadReq.mshrMissRate::total     0.000184                       # mshr miss rate for ReadReq accesses (Ratio)
system.cpu0.dcache.ReadReq.avgMshrMissLatency::cpu0.data 102369.729730                       # average ReadReq mshr miss latency ((Tick/Count))
system.cpu0.dcache.ReadReq.avgMshrMissLatency::total 102369.729730                       # average ReadReq mshr miss latency ((Tick/Count))
system.cpu0.dcache.WriteReq.hits::cpu0.data      2720815                       # number of WriteReq hits (Count)
system.cpu0.dcache.WriteReq.hits::total       2720815                       # number of WriteReq hits (Count)
system.cpu0.dcache.WriteReq.misses::cpu0.data       296515                       # number of WriteReq misses (Count)
system.cpu0.dcache.WriteReq.misses::total       296515                       # number of WriteReq misses (Count)
system.cpu0.dcache.WriteReq.missLatency::cpu0.data  32246618000                       # number of WriteReq miss ticks (Tick)
system.cpu0.dcache.WriteReq.missLatency::total  32246618000                       # number of WriteReq miss ticks (Tick)
system.cpu0.dcache.WriteReq.accesses::cpu0.data      3017330                       # number of WriteReq accesses(hits+misses) (Count)
system.cpu0.dcache.WriteReq.accesses::total      3017330                       # number of WriteReq accesses(hits+misses) (Count)
system.cpu0.dcache.WriteReq.missRate::cpu0.data     0.098271                       # miss rate for WriteReq accesses (Ratio)
system.cpu0.dcache.WriteReq.missRate::total     0.098271                       # miss rate for WriteReq accesses (Ratio)
system.cpu0.dcache.WriteReq.avgMissLatency::cpu0.data 108752.063133                       # average WriteReq miss latency ((Tick/Count))
system.cpu0.dcache.WriteReq.avgMissLatency::total 108752.063133                       # average WriteReq miss latency ((Tick/Count))
system.cpu0.dcache.WriteReq.mshrHits::cpu0.data        46320                       # number of WriteReq MSHR hits (Count)
system.cpu0.dcache.WriteReq.mshrHits::total        46320                       # number of WriteReq MSHR hits (Count)
system.cpu0.dcache.WriteReq.mshrMisses::cpu0.data       250195                       # number of WriteReq MSHR misses (Count)
system.cpu0.dcache.WriteReq.mshrMisses::total       250195                       # number of WriteReq MSHR misses (Count)
system.cpu0.dcache.WriteReq.mshrMissLatency::cpu0.data  31330352000                       # number of WriteReq MSHR miss ticks (Tick)
system.cpu0.dcache.WriteReq.mshrMissLatency::total  31330352000                       # number of WriteReq MSHR miss ticks (Tick)
system.cpu0.dcache.WriteReq.mshrMissRate::cpu0.data     0.082919                       # mshr miss rate for WriteReq accesses (Ratio)
system.cpu0.dcache.WriteReq.mshrMissRate::total     0.082919                       # mshr miss rate for WriteReq accesses (Ratio)
system.cpu0.dcache.WriteReq.avgMshrMissLatency::cpu0.data 125223.733488                       # average WriteReq mshr miss latency ((Tick/Count))
system.cpu0.dcache.WriteReq.avgMshrMissLatency::total 125223.733488                       # average WriteReq mshr miss latency ((Tick/Count))
system.cpu0.dcache.power_state.pwrStateResidencyTicks::UNDEFINED  58231122000                       # Cumulative time (in ticks) in various power states (Tick)
system.cpu0.dcache.tags.tagsInUse          510.910248                       # Average ticks per tags in use ((Tick/Count))
system.cpu0.dcache.tags.totalRefs             8011634                       # Total number of references to valid blocks. (Count)
system.cpu0.dcache.tags.sampledRefs            251126                       # Sample count of references to valid blocks. (Count)
system.cpu0.dcache.tags.avgRefs             31.902846                       # Average number of references to valid blocks. ((Count/Count))
system.cpu0.dcache.tags.warmupTick             223000                       # The tick when the warmup percentage was hit. (Tick)
system.cpu0.dcache.tags.occupancies::cpu0.data   510.910248                       # Average occupied blocks per tick, per requestor ((Count/Tick))
system.cpu0.dcache.tags.avgOccs::cpu0.data     0.997872                       # Average percentage of cache occupancy ((Ratio/Tick))
system.cpu0.dcache.tags.avgOccs::total       0.997872                       # Average percentage of cache occupancy ((Ratio/Tick))
system.cpu0.dcache.tags.occupanciesTaskId::1024          512                       # Occupied blocks per task id (Count)
system.cpu0.dcache.tags.ageTaskId_1024::1           27                       # Occupied blocks per task id, per block age (Count)
system.cpu0.dcache.tags.ageTaskId_1024::2          484                       # Occupied blocks per task id, per block age (Count)
system.cpu0.dcache.tags.ageTaskId_1024::4            1                       # Occupied blocks per task id, per block age (Count)
system.cpu0.dcache.tags.ratioOccsTaskId::1024            1                       # Ratio of occupied blocks and all blocks, per task id (Ratio)
system.cpu0.dcache.tags.tagAccesses          16367078                       # Number of tag accesses (Count)
system.cpu0.dcache.tags.dataAccesses         16367078                       # Number of data accesses (Count)
system.cpu0.dcache.tags.power_state.pwrStateResidencyTicks::UNDEFINED  58231122000                       # Cumulative time (in ticks) in various power states (Tick)
system.cpu0.executeStats0.numInsts                  0                       # Number of executed instructions (Count)
system.cpu0.executeStats0.numNop                    0                       # Number of nop insts executed (Count)
system.cpu0.executeStats0.numBranches               0                       # Number of branches executed (Count)
system.cpu0.executeStats0.numLoadInsts              0                       # Number of load instructions executed (Count)
system.cpu0.executeStats0.numStoreInsts             0                       # Number of stores executed (Count)
system.cpu0.executeStats0.instRate                  0                       # Inst execution rate ((Count/Cycle))
system.cpu0.executeStats0.numFpRegWrites            0                       # Number of times the floating registers were written (Count)
system.cpu0.executeStats0.numMemRefs                0                       # Number of memory refs (Count)
system.cpu0.executeStats0.numVecAluAccesses            0                       # Number of vector alu accesses (Count)
system.cpu0.executeStats0.numDiscardedOps      2076985                       # Number of ops (including micro ops) which were discarded before commit (Count)
system.cpu0.fetch2.intInstructions                 59                       # Number of integer instructions successfully decoded (Count)
system.cpu0.fetch2.fpInstructions                   0                       # Number of floating point instructions successfully decoded (Count)
system.cpu0.fetch2.vecInstructions                  0                       # Number of SIMD instructions successfully decoded (Count)
system.cpu0.fetch2.loadInstructions                 0                       # Number of memory load instructions successfully decoded (Count)
system.cpu0.fetch2.storeInstructions                0                       # Number of memory store instructions successfully decoded (Count)
system.cpu0.fetch2.amoInstructions                  0                       # Number of memory atomic instructions successfully decoded (Count)
system.cpu0.fetchStats0.numInsts                    0                       # Number of instructions fetched (thread level) (Count)
system.cpu0.fetchStats0.numOps                      0                       # Number of ops (including micro ops) fetched (thread level) (Count)
system.cpu0.fetchStats0.fetchRate                   0                       # Number of inst fetches per cycle ((Count/Cycle))
system.cpu0.fetchStats0.branchRate                  0                       # Number of branch fetches per cycle (Ratio)
system.cpu0.fetchStats0.numFetchSuspends            0                       # Number of times Execute suspended instruction fetching (Count)
system.cpu0.icache.demandHits::cpu0.inst      4066735                       # number of demand (read+write) hits (Count)
system.cpu0.icache.demandHits::total          4066735                       # number of demand (read+write) hits (Count)
system.cpu0.icache.overallHits::cpu0.inst      4066735                       # number of overall hits (Count)
system.cpu0.icache.overallHits::total         4066735                       # number of overall hits (Count)
system.cpu0.icache.demandMisses::cpu0.inst         1428                       # number of demand (read+write) misses (Count)
system.cpu0.icache.demandMisses::total           1428                       # number of demand (read+write) misses (Count)
system.cpu0.icache.overallMisses::cpu0.inst         1428                       # number of overall misses (Count)
system.cpu0.icache.overallMisses::total          1428                       # number of overall misses (Count)
system.cpu0.icache.demandMissLatency::cpu0.inst    145215000                       # number of demand (read+write) miss ticks (Tick)
system.cpu0.icache.demandMissLatency::total    145215000                       # number of demand (read+write) miss ticks (Tick)
system.cpu0.icache.overallMissLatency::cpu0.inst    145215000                       # number of overall miss ticks (Tick)
system.cpu0.icache.overallMissLatency::total    145215000                       # number of overall miss ticks (Tick)
system.cpu0.icache.demandAccesses::cpu0.inst      4068163                       # number of demand (read+write) accesses (Count)
system.cpu0.icache.demandAccesses::total      4068163                       # number of demand (read+write) accesses (Count)
system.cpu0.icache.overallAccesses::cpu0.inst      4068163                       # number of overall (read+write) accesses (Count)
system.cpu0.icache.overallAccesses::total      4068163                       # number of overall (read+write) accesses (Count)
system.cpu0.icache.demandMissRate::cpu0.inst     0.000351                       # miss rate for demand accesses (Ratio)
system.cpu0.icache.demandMissRate::total     0.000351                       # miss rate for demand accesses (Ratio)
system.cpu0.icache.overallMissRate::cpu0.inst     0.000351                       # miss rate for overall accesses (Ratio)
system.cpu0.icache.overallMissRate::total     0.000351                       # miss rate for overall accesses (Ratio)
system.cpu0.icache.demandAvgMissLatency::cpu0.inst 101691.176471                       # average overall miss latency in ticks ((Tick/Count))
system.cpu0.icache.demandAvgMissLatency::total 101691.176471                       # average overall miss latency in ticks ((Tick/Count))
system.cpu0.icache.overallAvgMissLatency::cpu0.inst 101691.176471                       # average overall miss latency ((Tick/Count))
system.cpu0.icache.overallAvgMissLatency::total 101691.176471                       # average overall miss latency ((Tick/Count))
system.cpu0.icache.blockedCycles::no_mshrs            0                       # number of cycles access was blocked (Cycle)
system.cpu0.icache.blockedCycles::no_targets            0                       # number of cycles access was blocked (Cycle)
system.cpu0.icache.blockedCauses::no_mshrs            0                       # number of times access was blocked (Count)
system.cpu0.icache.blockedCauses::no_targets            0                       # number of times access was blocked (Count)
system.cpu0.icache.avgBlocked::no_mshrs           nan                       # average number of cycles each access was blocked ((Cycle/Count))
system.cpu0.icache.avgBlocked::no_targets          nan                       # average number of cycles each access was blocked ((Cycle/Count))
system.cpu0.icache.demandMshrMisses::cpu0.inst         1428                       # number of demand (read+write) MSHR misses (Count)
system.cpu0.icache.demandMshrMisses::total         1428                       # number of demand (read+write) MSHR misses (Count)
system.cpu0.icache.overallMshrMisses::cpu0.inst         1428                       # number of overall MSHR misses (Count)
system.cpu0.icache.overallMshrMisses::total         1428                       # number of overall MSHR misses (Count)
system.cpu0.icache.demandMshrMissLatency::cpu0.inst    142359000                       # number of demand (read+write) MSHR miss ticks (Tick)
system.cpu0.icache.demandMshrMissLatency::total    142359000                       # number of demand (read+write) MSHR miss ticks (Tick)
system.cpu0.icache.overallMshrMissLatency::cpu0.inst    142359000                       # number of overall MSHR miss ticks (Tick)
system.cpu0.icache.overallMshrMissLatency::total    142359000                       # number of overall MSHR miss ticks (Tick)
system.cpu0.icache.demandMshrMissRate::cpu0.inst     0.000351                       # mshr miss ratio for demand accesses (Ratio)
system.cpu0.icache.demandMshrMissRate::total     0.000351                       # mshr miss ratio for demand accesses (Ratio)
system.cpu0.icache.overallMshrMissRate::cpu0.inst     0.000351                       # mshr miss ratio for overall accesses (Ratio)
system.cpu0.icache.overallMshrMissRate::total     0.000351                       # mshr miss ratio for overall accesses (Ratio)
system.cpu0.icache.demandAvgMshrMissLatency::cpu0.inst 99691.176471                       # average overall mshr miss latency ((Tick/Count))
system.cpu0.icache.demandAvgMshrMissLatency::total 99691.176471                       # average overall mshr miss latency ((Tick/Count))
system.cpu0.icache.overallAvgMshrMissLatency::cpu0.inst 99691.176471                       # average overall mshr miss latency ((Tick/Count))
system.cpu0.icache.overallAvgMshrMissLatency::total 99691.176471                       # average overall mshr miss latency ((Tick/Count))
system.cpu0.icache.replacements                   932                       # number of replacements (Count)
system.cpu0.icache.ReadReq.hits::cpu0.inst      4066735                       # number of ReadReq hits (Count)
system.cpu0.icache.ReadReq.hits::total        4066735                       # number of ReadReq hits (Count)
system.cpu0.icache.ReadReq.misses::cpu0.inst         1428                       # number of ReadReq misses (Count)
system.cpu0.icache.ReadReq.misses::total         1428                       # number of ReadReq misses (Count)
system.cpu0.icache.ReadReq.missLatency::cpu0.inst    145215000                       # number of ReadReq miss ticks (Tick)
system.cpu0.icache.ReadReq.missLatency::total    145215000                       # number of ReadReq miss ticks (Tick)
system.cpu0.icache.ReadReq.accesses::cpu0.inst      4068163                       # number of ReadReq accesses(hits+misses) (Count)
system.cpu0.icache.ReadReq.accesses::total      4068163                       # number of ReadReq accesses(hits+misses) (Count)
system.cpu0.icache.ReadReq.missRate::cpu0.inst     0.000351                       # miss rate for ReadReq accesses (Ratio)
system.cpu0.icache.ReadReq.missRate::total     0.000351                       # miss rate for ReadReq accesses (Ratio)
system.cpu0.icache.ReadReq.avgMissLatency::cpu0.inst 101691.176471                       # average ReadReq miss latency ((Tick/Count))
system.cpu0.icache.ReadReq.avgMissLatency::total 101691.176471                       # average ReadReq miss latency ((Tick/Count))
system.cpu0.icache.ReadReq.mshrMisses::cpu0.inst         1428                       # number of ReadReq MSHR misses (Count)
system.cpu0.icache.ReadReq.mshrMisses::total         1428                       # number of ReadReq MSHR misses (Count)
system.cpu0.icache.ReadReq.mshrMissLatency::cpu0.inst    142359000                       # number of ReadReq MSHR miss ticks (Tick)
system.cpu0.icache.ReadReq.mshrMissLatency::total    142359000                       # number of ReadReq MSHR miss ticks (Tick)
system.cpu0.icache.ReadReq.mshrMissRate::cpu0.inst     0.000351                       # mshr miss rate for ReadReq accesses (Ratio)
system.cpu0.icache.ReadReq.mshrMissRate::total     0.000351                       # mshr miss rate for ReadReq accesses (Ratio)
system.cpu0.icache.ReadReq.avgMshrMissLatency::cpu0.inst 99691.176471                       # average ReadReq mshr miss latency ((Tick/Count))
system.cpu0.icache.ReadReq.avgMshrMissLatency::total 99691.176471                       # average ReadReq mshr miss latency ((Tick/Count))
system.cpu0.icache.power_state.pwrStateResidencyTicks::UNDEFINED  58231122000                       # Cumulative time (in ticks) in various power states (Tick)
system.cpu0.icache.tags.tagsInUse          430.813416                       # Average ticks per tags in use ((Tick/Count))
system.cpu0.icache.tags.totalRefs             4068163                       # Total number of references to valid blocks. (Count)
system.cpu0.icache.tags.sampledRefs              1428                       # Sample count of references to valid blocks. (Count)
system.cpu0.icache.tags.avgRefs           2848.853641                       # Average number of references to valid blocks. ((Count/Count))
system.cpu0.icache.tags.warmupTick             108000                       # The tick when the warmup percentage was hit. (Tick)
system.cpu0.icache.tags.occupancies::cpu0.inst   430.813416                       # Average occupied blocks per tick, per requestor ((Count/Tick))
system.cpu0.icache.tags.avgOccs::cpu0.inst     0.841432                       # Average percentage of cache occupancy ((Ratio/Tick))
system.cpu0.icache.tags.avgOccs::total       0.841432                       # Average percentage of cache occupancy ((Ratio/Tick))
system.cpu0.icache.tags.occupanciesTaskId::1024          496                       # Occupied blocks per task id (Count)
system.cpu0.icache.tags.ageTaskId_1024::1          143                       # Occupied blocks per task id, per block age (Count)
system.cpu0.icache.tags.ageTaskId_1024::2          272                       # Occupied blocks per task id, per block age (Count)
system.cpu0.icache.tags.ageTaskId_1024::4           81                       # Occupied blocks per task id, per block age (Count)
system.cpu0.icache.tags.ratioOccsTaskId::1024     0.968750                       # Ratio of occupied blocks and all blocks, per task id (Ratio)
system.cpu0.icache.tags.tagAccesses           8137754                       # Number of tag accesses (Count)
system.cpu0.icache.tags.dataAccesses          8137754                       # Number of data accesses (Count)
system.cpu0.icache.tags.power_state.pwrStateResidencyTicks::UNDEFINED  58231122000                       # Cumulative time (in ticks) in various power states (Tick)
system.cpu0.interrupts.clk_domain.clock         16000                       # Clock period in ticks (Tick)
system.cpu0.mmu.dtb.rdAccesses                6041028                       # TLB accesses on read requests (Count)
system.cpu0.mmu.dtb.wrAccesses                3019381                       # TLB accesses on write requests (Count)
system.cpu0.mmu.dtb.rdMisses                      211                       # TLB misses on read requests (Count)
system.cpu0.mmu.dtb.wrMisses                     3967                       # TLB misses on write requests (Count)
system.cpu0.mmu.dtb.walker.power_state.pwrStateResidencyTicks::UNDEFINED  58231122000                       # Cumulative time (in ticks) in various power states (Tick)
system.cpu0.mmu.itb.rdAccesses                      0                       # TLB accesses on read requests (Count)
system.cpu0.mmu.itb.wrAccesses                4068163                       # TLB accesses on write requests (Count)
system.cpu0.mmu.itb.rdMisses                        0                       # TLB misses on read requests (Count)
system.cpu0.mmu.itb.wrMisses                       71                       # TLB misses on write requests (Count)
system.cpu0.mmu.itb.walker.power_state.pwrStateResidencyTicks::UNDEFINED  58231122000                       # Cumulative time (in ticks) in various power states (Tick)
system.cpu0.power_state.pwrStateResidencyTicks::ON  58231122000                       # Cumulative time (in ticks) in various power states (Tick)
system.cpu0.thread_0.numInsts                18178922                       # Number of Instructions committed (Count)
system.cpu0.thread_0.numOps                  31327197                       # Number of Ops committed (Count)
system.cpu0.thread_0.numMemRefs                     0                       # Number of Memory References (Count)
system.cpu0.workload.numSyscalls                   41                       # Number of system calls (Count)
system.cpu1.numCycles                        58231122                       # Number of cpu cycles simulated (Cycle)
system.cpu1.cpi                              3.203222                       # CPI: cycles per instruction (core level) ((Cycle/Count))
system.cpu1.ipc                              0.312186                       # IPC: instructions per cycle (core level) ((Count/Cycle))
system.cpu1.numWorkItemsStarted                     0                       # Number of work items this cpu started (Count)
system.cpu1.numWorkItemsCompleted                   0                       # Number of work items this cpu completed (Count)
system.cpu1.branchPred.lookups_0::NoBranch            0                       # Number of BP lookups (Count)
system.cpu1.branchPred.lookups_0::Return            0                       # Number of BP lookups (Count)
system.cpu1.branchPred.lookups_0::CallDirect            0                       # Number of BP lookups (Count)
system.cpu1.branchPred.lookups_0::CallIndirect            0                       # Number of BP lookups (Count)
system.cpu1.branchPred.lookups_0::DirectCond            0                       # Number of BP lookups (Count)
system.cpu1.branchPred.lookups_0::DirectUncond            0                       # Number of BP lookups (Count)
system.cpu1.branchPred.lookups_0::IndirectCond            0                       # Number of BP lookups (Count)
system.cpu1.branchPred.lookups_0::IndirectUncond            0                       # Number of BP lookups (Count)
system.cpu1.branchPred.lookups_0::total             0                       # Number of BP lookups (Count)
system.cpu1.branchPred.squashes_0::NoBranch            0                       # Number of branches that got squashed (completely removed) as an earlier branch was mispredicted. (Count)
system.cpu1.branchPred.squashes_0::Return            0                       # Number of branches that got squashed (completely removed) as an earlier branch was mispredicted. (Count)
system.cpu1.branchPred.squashes_0::CallDirect            0                       # Number of branches that got squashed (completely removed) as an earlier branch was mispredicted. (Count)
system.cpu1.branchPred.squashes_0::CallIndirect            0                       # Number of branches that got squashed (completely removed) as an earlier branch was mispredicted. (Count)
system.cpu1.branchPred.squashes_0::DirectCond            0                       # Number of branches that got squashed (completely removed) as an earlier branch was mispredicted. (Count)
system.cpu1.branchPred.squashes_0::DirectUncond            0                       # Number of branches that got squashed (completely removed) as an earlier branch was mispredicted. (Count)
system.cpu1.branchPred.squashes_0::IndirectCond            0                       # Number of branches that got squashed (completely removed) as an earlier branch was mispredicted. (Count)
system.cpu1.branchPred.squashes_0::IndirectUncond            0                       # Number of branches that got squashed (completely removed) as an earlier branch was mispredicted. (Count)
system.cpu1.branchPred.squashes_0::total            0                       # Number of branches that got squashed (completely removed) as an earlier branch was mispredicted. (Count)
system.cpu1.branchPred.corrected_0::NoBranch            0                       # Number of branches that got corrected but not yet commited. Branches get corrected by decode or after execute. Also a branch misprediction can be detected out-of-order. Therefore, a corrected branch might not end up beeing committed in case an even earlier branch was mispredicted (Count)
system.cpu1.branchPred.corrected_0::Return            0                       # Number of branches that got corrected but not yet commited. Branches get corrected by decode or after execute. Also a branch misprediction can be detected out-of-order. Therefore, a corrected branch might not end up beeing committed in case an even earlier branch was mispredicted (Count)
system.cpu1.branchPred.corrected_0::CallDirect            0                       # Number of branches that got corrected but not yet commited. Branches get corrected by decode or after execute. Also a branch misprediction can be detected out-of-order. Therefore, a corrected branch might not end up beeing committed in case an even earlier branch was mispredicted (Count)
system.cpu1.branchPred.corrected_0::CallIndirect            0                       # Number of branches that got corrected but not yet commited. Branches get corrected by decode or after execute. Also a branch misprediction can be detected out-of-order. Therefore, a corrected branch might not end up beeing committed in case an even earlier branch was mispredicted (Count)
system.cpu1.branchPred.corrected_0::DirectCond            0                       # Number of branches that got corrected but not yet commited. Branches get corrected by decode or after execute. Also a branch misprediction can be detected out-of-order. Therefore, a corrected branch might not end up beeing committed in case an even earlier branch was mispredicted (Count)
system.cpu1.branchPred.corrected_0::DirectUncond            0                       # Number of branches that got corrected but not yet commited. Branches get corrected by decode or after execute. Also a branch misprediction can be detected out-of-order. Therefore, a corrected branch might not end up beeing committed in case an even earlier branch was mispredicted (Count)
system.cpu1.branchPred.corrected_0::IndirectCond            0                       # Number of branches that got corrected but not yet commited. Branches get corrected by decode or after execute. Also a branch misprediction can be detected out-of-order. Therefore, a corrected branch might not end up beeing committed in case an even earlier branch was mispredicted (Count)
system.cpu1.branchPred.corrected_0::IndirectUncond            0                       # Number of branches that got corrected but not yet commited. Branches get corrected by decode or after execute. Also a branch misprediction can be detected out-of-order. Therefore, a corrected branch might not end up beeing committed in case an even earlier branch was mispredicted (Count)
system.cpu1.branchPred.corrected_0::total            0                       # Number of branches that got corrected but not yet commited. Branches get corrected by decode or after execute. Also a branch misprediction can be detected out-of-order. Therefore, a corrected branch might not end up beeing committed in case an even earlier branch was mispredicted (Count)
system.cpu1.branchPred.earlyResteers_0::NoBranch            0                       # Number of branches that got redirected after decode. (Count)
system.cpu1.branchPred.earlyResteers_0::Return            0                       # Number of branches that got redirected after decode. (Count)
system.cpu1.branchPred.earlyResteers_0::CallDirect            0                       # Number of branches that got redirected after decode. (Count)
system.cpu1.branchPred.earlyResteers_0::CallIndirect            0                       # Number of branches that got redirected after decode. (Count)
system.cpu1.branchPred.earlyResteers_0::DirectCond            0                       # Number of branches that got redirected after decode. (Count)
system.cpu1.branchPred.earlyResteers_0::DirectUncond            0                       # Number of branches that got redirected after decode. (Count)
system.cpu1.branchPred.earlyResteers_0::IndirectCond            0                       # Number of branches that got redirected after decode. (Count)
system.cpu1.branchPred.earlyResteers_0::IndirectUncond            0                       # Number of branches that got redirected after decode. (Count)
system.cpu1.branchPred.earlyResteers_0::total            0                       # Number of branches that got redirected after decode. (Count)
system.cpu1.branchPred.committed_0::NoBranch            0                       # Number of branches finally committed  (Count)
system.cpu1.branchPred.committed_0::Return            0                       # Number of branches finally committed  (Count)
system.cpu1.branchPred.committed_0::CallDirect            0                       # Number of branches finally committed  (Count)
system.cpu1.branchPred.committed_0::CallIndirect            0                       # Number of branches finally committed  (Count)
system.cpu1.branchPred.committed_0::DirectCond            0                       # Number of branches finally committed  (Count)
system.cpu1.branchPred.committed_0::DirectUncond            0                       # Number of branches finally committed  (Count)
system.cpu1.branchPred.committed_0::IndirectCond            0                       # Number of branches finally committed  (Count)
system.cpu1.branchPred.committed_0::IndirectUncond            0                       # Number of branches finally committed  (Count)
system.cpu1.branchPred.committed_0::total            0                       # Number of branches finally committed  (Count)
system.cpu1.branchPred.mispredicted_0::NoBranch            0                       # Number of committed branches that were mispredicted. (Count)
system.cpu1.branchPred.mispredicted_0::Return            0                       # Number of committed branches that were mispredicted. (Count)
system.cpu1.branchPred.mispredicted_0::CallDirect            0                       # Number of committed branches that were mispredicted. (Count)
system.cpu1.branchPred.mispredicted_0::CallIndirect            0                       # Number of committed branches that were mispredicted. (Count)
system.cpu1.branchPred.mispredicted_0::DirectCond            0                       # Number of committed branches that were mispredicted. (Count)
system.cpu1.branchPred.mispredicted_0::DirectUncond            0                       # Number of committed branches that were mispredicted. (Count)
system.cpu1.branchPred.mispredicted_0::IndirectCond            0                       # Number of committed branches that were mispredicted. (Count)
system.cpu1.branchPred.mispredicted_0::IndirectUncond            0                       # Number of committed branches that were mispredicted. (Count)
system.cpu1.branchPred.mispredicted_0::total            0                       # Number of committed branches that were mispredicted. (Count)
system.cpu1.branchPred.targetProvider_0::NoTarget            0                       # The component providing the target for taken branches (Count)
system.cpu1.branchPred.targetProvider_0::BTB            0                       # The component providing the target for taken branches (Count)
system.cpu1.branchPred.targetProvider_0::RAS            0                       # The component providing the target for taken branches (Count)
system.cpu1.branchPred.targetProvider_0::Indirect            0                       # The component providing the target for taken branches (Count)
system.cpu1.branchPred.targetProvider_0::total            0                       # The component providing the target for taken branches (Count)
system.cpu1.branchPred.targetWrong_0::NoBranch            0                       # Number of branches where the target was incorrect or not available at prediction time. (Count)
system.cpu1.branchPred.targetWrong_0::Return            0                       # Number of branches where the target was incorrect or not available at prediction time. (Count)
system.cpu1.branchPred.targetWrong_0::CallDirect            0                       # Number of branches where the target was incorrect or not available at prediction time. (Count)
system.cpu1.branchPred.targetWrong_0::CallIndirect            0                       # Number of branches where the target was incorrect or not available at prediction time. (Count)
system.cpu1.branchPred.targetWrong_0::DirectCond            0                       # Number of branches where the target was incorrect or not available at prediction time. (Count)
[...]
system.mem_ctrl.dram.bwTotal::cpu0.data     275986027                       # Total bandwidth to/from this memory ((Byte/Second))
system.mem_ctrl.dram.bwTotal::cpu1.inst       1348557                       # Total bandwidth to/from this memory ((Byte/Second))
system.mem_ctrl.dram.bwTotal::cpu1.data     275984928                       # Total bandwidth to/from this memory ((Byte/Second))
system.mem_ctrl.dram.bwTotal::cpu2.inst       1348557                       # Total bandwidth to/from this memory ((Byte/Second))
system.mem_ctrl.dram.bwTotal::cpu2.data     275983829                       # Total bandwidth to/from this memory ((Byte/Second))
system.mem_ctrl.dram.bwTotal::cpu3.inst       1348557                       # Total bandwidth to/from this memory ((Byte/Second))
system.mem_ctrl.dram.bwTotal::cpu3.data     275983829                       # Total bandwidth to/from this memory ((Byte/Second))
system.mem_ctrl.dram.bwTotal::total        2206441840                       # Total bandwidth to/from this memory ((Byte/Second))
system.mem_ctrl.dram.readBursts               1009337                       # Number of DRAM read bursts (Count)
system.mem_ctrl.dram.writeBursts               998193                       # Number of DRAM write bursts (Count)
system.mem_ctrl.dram.perBankRdBursts::0         62985                       # Per bank write bursts (Count)
system.mem_ctrl.dram.perBankRdBursts::1         63033                       # Per bank write bursts (Count)
system.mem_ctrl.dram.perBankRdBursts::2         62932                       # Per bank write bursts (Count)
system.mem_ctrl.dram.perBankRdBursts::3         63102                       # Per bank write bursts (Count)
system.mem_ctrl.dram.perBankRdBursts::4         63155                       # Per bank write bursts (Count)
system.mem_ctrl.dram.perBankRdBursts::5         63149                       # Per bank write bursts (Count)
system.mem_ctrl.dram.perBankRdBursts::6         63028                       # Per bank write bursts (Count)
system.mem_ctrl.dram.perBankRdBursts::7         63040                       # Per bank write bursts (Count)
system.mem_ctrl.dram.perBankRdBursts::8         63108                       # Per bank write bursts (Count)
system.mem_ctrl.dram.perBankRdBursts::9         63017                       # Per bank write bursts (Count)
system.mem_ctrl.dram.perBankRdBursts::10        63124                       # Per bank write bursts (Count)
system.mem_ctrl.dram.perBankRdBursts::11        63039                       # Per bank write bursts (Count)
system.mem_ctrl.dram.perBankRdBursts::12        63147                       # Per bank write bursts (Count)
system.mem_ctrl.dram.perBankRdBursts::13        63195                       # Per bank write bursts (Count)
system.mem_ctrl.dram.perBankRdBursts::14        63190                       # Per bank write bursts (Count)
system.mem_ctrl.dram.perBankRdBursts::15        63093                       # Per bank write bursts (Count)
system.mem_ctrl.dram.perBankWrBursts::0         62490                       # Per bank write bursts (Count)
system.mem_ctrl.dram.perBankWrBursts::1         62446                       # Per bank write bursts (Count)
system.mem_ctrl.dram.perBankWrBursts::2         62326                       # Per bank write bursts (Count)
system.mem_ctrl.dram.perBankWrBursts::3         62297                       # Per bank write bursts (Count)
system.mem_ctrl.dram.perBankWrBursts::4         62339                       # Per bank write bursts (Count)
system.mem_ctrl.dram.perBankWrBursts::5         62335                       # Per bank write bursts (Count)
system.mem_ctrl.dram.perBankWrBursts::6         62423                       # Per bank write bursts (Count)
system.mem_ctrl.dram.perBankWrBursts::7         62492                       # Per bank write bursts (Count)
system.mem_ctrl.dram.perBankWrBursts::8         62536                       # Per bank write bursts (Count)
system.mem_ctrl.dram.perBankWrBursts::9         62545                       # Per bank write bursts (Count)
system.mem_ctrl.dram.perBankWrBursts::10        62426                       # Per bank write bursts (Count)
system.mem_ctrl.dram.perBankWrBursts::11        62285                       # Per bank write bursts (Count)
system.mem_ctrl.dram.perBankWrBursts::12        62269                       # Per bank write bursts (Count)
system.mem_ctrl.dram.perBankWrBursts::13        62273                       # Per bank write bursts (Count)
system.mem_ctrl.dram.perBankWrBursts::14        62288                       # Per bank write bursts (Count)
system.mem_ctrl.dram.perBankWrBursts::15        62423                       # Per bank write bursts (Count)
system.mem_ctrl.dram.totQLat              32725224500                       # Total ticks spent queuing (Tick)
system.mem_ctrl.dram.totBusLat             5046685000                       # Total ticks spent in databus transfers (Tick)
system.mem_ctrl.dram.totMemAccLat         51650293250                       # Total ticks spent from burst creation until serviced by the DRAM (Tick)
system.mem_ctrl.dram.avgQLat                 32422.50                       # Average queueing delay per DRAM burst ((Tick/Count))
system.mem_ctrl.dram.avgBusLat                5000.00                       # Average bus latency per DRAM burst ((Tick/Count))
system.mem_ctrl.dram.avgMemAccLat            51172.50                       # Average memory access latency per DRAM burst ((Tick/Count))
system.mem_ctrl.dram.readRowHits               500558                       # Number of row buffer hits during reads (Count)
system.mem_ctrl.dram.writeRowHits              870803                       # Number of row buffer hits during writes (Count)
system.mem_ctrl.dram.readRowHitRate             49.59                       # Row buffer hit rate for reads (Ratio)
system.mem_ctrl.dram.writeRowHitRate            87.24                       # Row buffer hit rate for writes (Ratio)
system.mem_ctrl.dram.bytesPerActivate::samples       636162                       # Bytes accessed per row activation (Byte)
system.mem_ctrl.dram.bytesPerActivate::mean   201.962142                       # Bytes accessed per row activation (Byte)
system.mem_ctrl.dram.bytesPerActivate::gmean   112.606992                       # Bytes accessed per row activation (Byte)
system.mem_ctrl.dram.bytesPerActivate::stdev   275.556387                       # Bytes accessed per row activation (Byte)
system.mem_ctrl.dram.bytesPerActivate::0-127       444601     69.89%     69.89% # Bytes accessed per row activation (Byte)
system.mem_ctrl.dram.bytesPerActivate::128-255        40435      6.36%     76.24% # Bytes accessed per row activation (Byte)
system.mem_ctrl.dram.bytesPerActivate::256-383        30895      4.86%     81.10% # Bytes accessed per row activation (Byte)
system.mem_ctrl.dram.bytesPerActivate::384-511        40138      6.31%     87.41% # Bytes accessed per row activation (Byte)
system.mem_ctrl.dram.bytesPerActivate::512-639        20389      3.21%     90.61% # Bytes accessed per row activation (Byte)
system.mem_ctrl.dram.bytesPerActivate::640-767         6260      0.98%     91.60% # Bytes accessed per row activation (Byte)
system.mem_ctrl.dram.bytesPerActivate::768-895         4532      0.71%     92.31% # Bytes accessed per row activation (Byte)
system.mem_ctrl.dram.bytesPerActivate::896-1023         5763      0.91%     93.22% # Bytes accessed per row activation (Byte)
system.mem_ctrl.dram.bytesPerActivate::1024-1151        43149      6.78%    100.00% # Bytes accessed per row activation (Byte)
system.mem_ctrl.dram.bytesPerActivate::total       636162                       # Bytes accessed per row activation (Byte)
system.mem_ctrl.dram.dramBytesRead           64597568                       # Total bytes read (Byte)
system.mem_ctrl.dram.dramBytesWritten        63884352                       # Total bytes written (Byte)
system.mem_ctrl.dram.avgRdBW              1109.330643                       # Average DRAM read bandwidth in MiBytes/s ((Byte/Second))
system.mem_ctrl.dram.avgWrBW              1097.082622                       # Average DRAM write bandwidth in MiBytes/s ((Byte/Second))
system.mem_ctrl.dram.peakBW                  12800.00                       # Theoretical peak bandwidth in MiByte/s ((Byte/Second))
system.mem_ctrl.dram.busUtil                    17.24                       # Data bus utilization in percentage (Ratio)
system.mem_ctrl.dram.busUtilRead                 8.67                       # Data bus utilization in percentage for reads (Ratio)
system.mem_ctrl.dram.busUtilWrite                8.57                       # Data bus utilization in percentage for writes (Ratio)
system.mem_ctrl.dram.pageHitRate                68.31                       # Row buffer hit rate, read and write combined (Ratio)
system.mem_ctrl.dram.power_state.pwrStateResidencyTicks::UNDEFINED  58231122000                       # Cumulative time (in ticks) in various power states (Tick)
system.mem_ctrl.dram.rank0.actEnergy       2272826220                       # Energy for activate commands per rank (pJ) (Joule)
system.mem_ctrl.dram.rank0.preEnergy       1208013015                       # Energy for precharge commands per rank (pJ) (Joule)
system.mem_ctrl.dram.rank0.readEnergy      3601587360                       # Energy for read commands per rank (pJ) (Joule)
system.mem_ctrl.dram.rank0.writeEnergy     2605521240                       # Energy for write commands per rank (pJ) (Joule)
system.mem_ctrl.dram.rank0.refreshEnergy 4596277920.000001                       # Energy for refresh commands per rank (pJ) (Joule)
system.mem_ctrl.dram.rank0.actBackEnergy  26274345510                       # Energy for active background per rank (pJ) (Joule)
system.mem_ctrl.dram.rank0.preBackEnergy    234986400                       # Energy for precharge background per rank (pJ) (Joule)
system.mem_ctrl.dram.rank0.actPowerDownEnergy            0                       # Energy for active power-down per rank (pJ) (Joule)
system.mem_ctrl.dram.rank0.prePowerDownEnergy            0                       # Energy for precharge power-down per rank (pJ) (Joule)
system.mem_ctrl.dram.rank0.selfRefreshEnergy            0                       # Energy for self refresh per rank (pJ) (Joule)
system.mem_ctrl.dram.rank0.totalEnergy    40793557665                       # Total energy per rank (pJ) (Joule)
system.mem_ctrl.dram.rank0.averagePower    700.545623                       # Core power per rank (mW) (Watt)
system.mem_ctrl.dram.rank0.totalIdleTime            0                       # Total Idle time Per DRAM Rank (Tick)
system.mem_ctrl.dram.rank0.pwrStateTime::IDLE    257887250                       # Time in different power states (Tick)
system.mem_ctrl.dram.rank0.pwrStateTime::REF   1944280000                       # Time in different power states (Tick)
system.mem_ctrl.dram.rank0.pwrStateTime::SREF            0                       # Time in different power states (Tick)
system.mem_ctrl.dram.rank0.pwrStateTime::PRE_PDN            0                       # Time in different power states (Tick)
system.mem_ctrl.dram.rank0.pwrStateTime::ACT  56028954750                       # Time in different power states (Tick)
system.mem_ctrl.dram.rank0.pwrStateTime::ACT_PDN            0                       # Time in different power states (Tick)
system.mem_ctrl.dram.rank1.actEnergy       2269420440                       # Energy for activate commands per rank (pJ) (Joule)
system.mem_ctrl.dram.rank1.preEnergy       1206214185                       # Energy for precharge commands per rank (pJ) (Joule)
system.mem_ctrl.dram.rank1.readEnergy      3605078820                       # Energy for read commands per rank (pJ) (Joule)
system.mem_ctrl.dram.rank1.writeEnergy     2605014900                       # Energy for write commands per rank (pJ) (Joule)
system.mem_ctrl.dram.rank1.refreshEnergy 4596277920.000001                       # Energy for refresh commands per rank (pJ) (Joule)
system.mem_ctrl.dram.rank1.actBackEnergy  26279817510                       # Energy for active background per rank (pJ) (Joule)
system.mem_ctrl.dram.rank1.preBackEnergy    230378400                       # Energy for precharge background per rank (pJ) (Joule)
system.mem_ctrl.dram.rank1.actPowerDownEnergy            0                       # Energy for active power-down per rank (pJ) (Joule)
system.mem_ctrl.dram.rank1.prePowerDownEnergy            0                       # Energy for precharge power-down per rank (pJ) (Joule)
system.mem_ctrl.dram.rank1.selfRefreshEnergy            0                       # Energy for self refresh per rank (pJ) (Joule)
system.mem_ctrl.dram.rank1.totalEnergy    40792202175                       # Total energy per rank (pJ) (Joule)
system.mem_ctrl.dram.rank1.averagePower    700.522346                       # Core power per rank (mW) (Watt)
system.mem_ctrl.dram.rank1.totalIdleTime            0                       # Total Idle time Per DRAM Rank (Tick)
system.mem_ctrl.dram.rank1.pwrStateTime::IDLE    247752750                       # Time in different power states (Tick)
system.mem_ctrl.dram.rank1.pwrStateTime::REF   1944280000                       # Time in different power states (Tick)
system.mem_ctrl.dram.rank1.pwrStateTime::SREF            0                       # Time in different power states (Tick)
system.mem_ctrl.dram.rank1.pwrStateTime::PRE_PDN            0                       # Time in different power states (Tick)
system.mem_ctrl.dram.rank1.pwrStateTime::ACT  56039089250                       # Time in different power states (Tick)
system.mem_ctrl.dram.rank1.pwrStateTime::ACT_PDN            0                       # Time in different power states (Tick)
system.mem_ctrl.power_state.pwrStateResidencyTicks::UNDEFINED  58231122000                       # Cumulative time (in ticks) in various power states (Tick)
system.membus.transDist::ReadResp                8547                       # Transaction distribution (Count)
system.membus.transDist::WritebackDirty        998217                       # Transaction distribution (Count)
system.membus.transDist::CleanEvict              5472                       # Transaction distribution (Count)
system.membus.transDist::ReadExReq            1000792                       # Transaction distribution (Count)
system.membus.transDist::ReadExResp           1000792                       # Transaction distribution (Count)
system.membus.transDist::ReadSharedReq           8547                       # Transaction distribution (Count)
system.membus.pktCount_system.l2cache.mem_side_port::system.mem_ctrl.port      3022367                       # Packet count per connected requestor and responder (Count)
system.membus.pktCount_system.l2cache.mem_side_port::total      3022367                       # Packet count per connected requestor and responder (Count)
system.membus.pktCount::total                 3022367                       # Packet count per connected requestor and responder (Count)
system.membus.pktSize_system.l2cache.mem_side_port::system.mem_ctrl.port    128483584                       # Cumulative packet size per connected requestor and responder (Byte)
system.membus.pktSize_system.l2cache.mem_side_port::total    128483584                       # Cumulative packet size per connected requestor and responder (Byte)
system.membus.pktSize::total                128483584                       # Cumulative packet size per connected requestor and responder (Byte)
system.membus.snoops                                0                       # Total snoops (Count)
system.membus.snoopTraffic                          0                       # Total snoop traffic (Byte)
system.membus.snoopFanout::samples            1009339                       # Request fanout histogram (Count)
system.membus.snoopFanout::mean                     0                       # Request fanout histogram (Count)
system.membus.snoopFanout::stdev                    0                       # Request fanout histogram (Count)
system.membus.snoopFanout::underflows               0      0.00%      0.00% # Request fanout histogram (Count)
system.membus.snoopFanout::0                  1009339    100.00%    100.00% # Request fanout histogram (Count)
system.membus.snoopFanout::1                        0      0.00%    100.00% # Request fanout histogram (Count)
system.membus.snoopFanout::overflows                0      0.00%    100.00% # Request fanout histogram (Count)
system.membus.snoopFanout::min_value                0                       # Request fanout histogram (Count)
system.membus.snoopFanout::max_value                0                       # Request fanout histogram (Count)
system.membus.snoopFanout::total              1009339                       # Request fanout histogram (Count)
system.membus.power_state.pwrStateResidencyTicks::UNDEFINED  58231122000                       # Cumulative time (in ticks) in various power states (Tick)
system.membus.reqLayer8.occupancy          6005896000                       # Layer occupancy (ticks) (Tick)
system.membus.reqLayer8.utilization               0.1                       # Layer utilization (Ratio)
system.membus.respLayer0.occupancy         5356074000                       # Layer occupancy (ticks) (Tick)
system.membus.respLayer0.utilization              0.1                       # Layer utilization (Ratio)
system.membus.snoop_filter.totRequests        2013028                       # Total number of requests made to the snoop filter. (Count)
system.membus.snoop_filter.hitSingleRequests      1003689                       # Number of requests hitting in the snoop filter with a single holder of the requested data. (Count)
system.membus.snoop_filter.hitMultiRequests            0                       # Number of requests hitting in the snoop filter with multiple (>1) holders of the requested data. (Count)
system.membus.snoop_filter.totSnoops                0                       # Total number of snoops made to the snoop filter. (Count)
system.membus.snoop_filter.hitSingleSnoops            0                       # Number of snoops hitting in the snoop filter with a single holder of the requested data. (Count)
system.membus.snoop_filter.hitMultiSnoops            0                       # Number of snoops hitting in the snoop filter with multiple (>1) holders of the requested data. (Count)
system.workload.inst.arm                            0                       # number of arm instructions executed (Count)
system.workload.inst.quiesce                        0                       # number of quiesce instructions executed (Count)
system.cpu0.idleCycles                       13008104                       # Total number of cycles that the object has spent stopped (Unspecified)
system.cpu0.tickCycles                       45200991                       # Number of cycles that the object actually ticked (Unspecified)
system.cpu1.idleCycles                       13017054                       # Total number of cycles that the object has spent stopped (Unspecified)
system.cpu1.tickCycles                       45214068                       # Number of cycles that the object actually ticked (Unspecified)
system.cpu2.idleCycles                       13004088                       # Total number of cycles that the object has spent stopped (Unspecified)
system.cpu2.tickCycles                       45201956                       # Number of cycles that the object actually ticked (Unspecified)
system.cpu3.idleCycles                       13005951                       # Total number of cycles that the object has spent stopped (Unspecified)
system.cpu3.tickCycles                       45209468                       # Number of cycles that the object actually ticked (Unspecified)

---------- End Simulation Statistics   ----------
